# generated using pymatgen
data_Cu6H21C45N12O13
_symmetry_space_group_name_H-M   'P 1'
_cell_length_a   38.45940000
_cell_length_b   38.45940000
_cell_length_c   38.45940000
_cell_angle_alpha   60.00000000
_cell_angle_beta   60.00000000
_cell_angle_gamma   60.00000000
_symmetry_Int_Tables_number   1
_chemical_formula_structural   Cu6H21C45N12O13
_chemical_formula_sum   'Cu48 H168 C360 N96 O104'
_cell_volume   40224.67241313
_cell_formula_units_Z   8
loop_
 _symmetry_equiv_pos_site_id
 _symmetry_equiv_pos_as_xyz
  1  'x, y, z'
loop_
 _atom_site_type_symbol
 _atom_site_label
 _atom_site_symmetry_multiplicity
 _atom_site_fract_x
 _atom_site_fract_y
 _atom_site_fract_z
 _atom_site_occupancy
  Cu  Cu0  1  0.00000000  0.72494000  0.27506000  1.0
  Cu  Cu1  1  1.00000000  0.79452000  0.20548000  1.0
  Cu  Cu2  1  0.72494000  0.00000000  0.00000000  1.0
  Cu  Cu3  1  0.79452000  0.00000000  1.00000000  1.0
  Cu  Cu4  1  0.00000000  0.27506000  0.72494000  1.0
  Cu  Cu5  1  0.00000000  0.20548000  0.79452000  1.0
  Cu  Cu6  1  0.27506000  1.00000000  1.00000000  1.0
  Cu  Cu7  1  0.20548000  0.00000000  0.00000000  1.0
  Cu  Cu8  1  0.00000000  0.00000000  0.27506000  1.0
  Cu  Cu9  1  1.00000000  0.00000000  0.20548000  1.0
  Cu  Cu10  1  0.27506000  0.72494000  0.00000000  1.0
  Cu  Cu11  1  0.20548000  0.79452000  0.00000000  1.0
  Cu  Cu12  1  0.00000000  0.00000000  0.72494000  1.0
  Cu  Cu13  1  0.00000000  0.00000000  0.79452000  1.0
  Cu  Cu14  1  0.72494000  0.27506000  0.00000000  1.0
  Cu  Cu15  1  0.79452000  0.20548000  0.00000000  1.0
  Cu  Cu16  1  0.72494000  0.00000000  0.27506000  1.0
  Cu  Cu17  1  0.79452000  0.00000000  0.20548000  1.0
  Cu  Cu18  1  0.00000000  0.27506000  1.00000000  1.0
  Cu  Cu19  1  0.00000000  0.20548000  0.00000000  1.0
  Cu  Cu20  1  0.27506000  1.00000000  0.72494000  1.0
  Cu  Cu21  1  0.20548000  0.00000000  0.79452000  1.0
  Cu  Cu22  1  0.00000000  0.72494000  0.00000000  1.0
  Cu  Cu23  1  1.00000000  0.79452000  1.00000000  1.0
  Cu  Cu24  1  0.30820000  0.39010000  0.39010000  1.0
  Cu  Cu25  1  0.39010000  0.30820000  0.91160000  1.0
  Cu  Cu26  1  0.91160000  0.39010000  0.39010000  1.0
  Cu  Cu27  1  0.39010000  0.91160000  0.30820000  1.0
  Cu  Cu28  1  0.91160000  0.30820000  0.39010000  1.0
  Cu  Cu29  1  0.39010000  0.39010000  0.91160000  1.0
  Cu  Cu30  1  0.30820000  0.91160000  0.39010000  1.0
  Cu  Cu31  1  0.39010000  0.39010000  0.30820000  1.0
  Cu  Cu32  1  0.39010000  0.91160000  0.39010000  1.0
  Cu  Cu33  1  0.30820000  0.39010000  0.91160000  1.0
  Cu  Cu34  1  0.39010000  0.30820000  0.39010000  1.0
  Cu  Cu35  1  0.91160000  0.39010000  0.30820000  1.0
  Cu  Cu36  1  0.69180000  0.60990000  0.08840000  1.0
  Cu  Cu37  1  0.60990000  0.69180000  0.60990000  1.0
  Cu  Cu38  1  0.08840000  0.60990000  0.69180000  1.0
  Cu  Cu39  1  0.60990000  0.08840000  0.60990000  1.0
  Cu  Cu40  1  0.08840000  0.69180000  0.60990000  1.0
  Cu  Cu41  1  0.60990000  0.60990000  0.69180000  1.0
  Cu  Cu42  1  0.69180000  0.08840000  0.60990000  1.0
  Cu  Cu43  1  0.60990000  0.60990000  0.08840000  1.0
  Cu  Cu44  1  0.60990000  0.08840000  0.69180000  1.0
  Cu  Cu45  1  0.69180000  0.60990000  0.60990000  1.0
  Cu  Cu46  1  0.60990000  0.69180000  0.08840000  1.0
  Cu  Cu47  1  0.08840000  0.60990000  0.60990000  1.0
  H  H48  1  0.13400000  0.65420000  0.23960000  1.0
  H  H49  1  0.20830000  0.54230000  0.31230000  1.0
  H  H50  1  0.16720000  0.60120000  0.27300000  1.0
  H  H51  1  0.65420000  0.13400000  0.97220000  1.0
  H  H52  1  0.54230000  0.20830000  0.93710000  1.0
  H  H53  1  0.60120000  0.16720000  0.95860000  1.0
  H  H54  1  0.97220000  0.23960000  0.65420000  1.0
  H  H55  1  0.93710000  0.31230000  0.54230000  1.0
  H  H56  1  0.95860000  0.27300000  0.60120000  1.0
  H  H57  1  0.23960000  0.97220000  0.13400000  1.0
  H  H58  1  0.31230000  0.93710000  0.20830000  1.0
  H  H59  1  0.27300000  0.95860000  0.16720000  1.0
  H  H60  1  0.97220000  0.13400000  0.23960000  1.0
  H  H61  1  0.93710000  0.20830000  0.31230000  1.0
  H  H62  1  0.95860000  0.16720000  0.27300000  1.0
  H  H63  1  0.23960000  0.65420000  0.97220000  1.0
  H  H64  1  0.31230000  0.54230000  0.93710000  1.0
  H  H65  1  0.27300000  0.60120000  0.95860000  1.0
  H  H66  1  0.13400000  0.97220000  0.65420000  1.0
  H  H67  1  0.20830000  0.93710000  0.54230000  1.0
  H  H68  1  0.16720000  0.95860000  0.60120000  1.0
  H  H69  1  0.65420000  0.23960000  0.13400000  1.0
  H  H70  1  0.54230000  0.31230000  0.20830000  1.0
  H  H71  1  0.60120000  0.27300000  0.16720000  1.0
  H  H72  1  0.65420000  0.97220000  0.23960000  1.0
  H  H73  1  0.54230000  0.93710000  0.31230000  1.0
  H  H74  1  0.60120000  0.95860000  0.27300000  1.0
  H  H75  1  0.13400000  0.23960000  0.97220000  1.0
  H  H76  1  0.20830000  0.31230000  0.93710000  1.0
  H  H77  1  0.16720000  0.27300000  0.95860000  1.0
  H  H78  1  0.23960000  0.13400000  0.65420000  1.0
  H  H79  1  0.31230000  0.20830000  0.54230000  1.0
  H  H80  1  0.27300000  0.16720000  0.60120000  1.0
  H  H81  1  0.97220000  0.65420000  0.13400000  1.0
  H  H82  1  0.93710000  0.54230000  0.20830000  1.0
  H  H83  1  0.95860000  0.60120000  0.16720000  1.0
  H  H84  1  0.86600000  0.34580000  0.02780000  1.0
  H  H85  1  0.79170000  0.45770000  0.06290000  1.0
  H  H86  1  0.83280000  0.39880000  0.04140000  1.0
  H  H87  1  0.34580000  0.86600000  0.76040000  1.0
  H  H88  1  0.45770000  0.79170000  0.68770000  1.0
  H  H89  1  0.39880000  0.83280000  0.72700000  1.0
  H  H90  1  0.02780000  0.76040000  0.86600000  1.0
  H  H91  1  0.06290000  0.68770000  0.79170000  1.0
  H  H92  1  0.04140000  0.72700000  0.83280000  1.0
  H  H93  1  0.76040000  0.02780000  0.34580000  1.0
  H  H94  1  0.68770000  0.06290000  0.45770000  1.0
  H  H95  1  0.72700000  0.04140000  0.39880000  1.0
  H  H96  1  0.02780000  0.86600000  0.34580000  1.0
  H  H97  1  0.06290000  0.79170000  0.45770000  1.0
  H  H98  1  0.04140000  0.83280000  0.39880000  1.0
  H  H99  1  0.76040000  0.34580000  0.86600000  1.0
  H  H100  1  0.68770000  0.45770000  0.79170000  1.0
  H  H101  1  0.72700000  0.39880000  0.83280000  1.0
  H  H102  1  0.86600000  0.02780000  0.76040000  1.0
  H  H103  1  0.79170000  0.06290000  0.68770000  1.0
  H  H104  1  0.83280000  0.04140000  0.72700000  1.0
  H  H105  1  0.34580000  0.76040000  0.02780000  1.0
  H  H106  1  0.45770000  0.68770000  0.06290000  1.0
  H  H107  1  0.39880000  0.72700000  0.04140000  1.0
  H  H108  1  0.34580000  0.02780000  0.86600000  1.0
  H  H109  1  0.45770000  0.06290000  0.79170000  1.0
  H  H110  1  0.39880000  0.04140000  0.83280000  1.0
  H  H111  1  0.86600000  0.76040000  0.34580000  1.0
  H  H112  1  0.79170000  0.68770000  0.45770000  1.0
  H  H113  1  0.83280000  0.72700000  0.39880000  1.0
  H  H114  1  0.76040000  0.86600000  0.02780000  1.0
  H  H115  1  0.68770000  0.79170000  0.06290000  1.0
  H  H116  1  0.72700000  0.83280000  0.04140000  1.0
  H  H117  1  0.02780000  0.34580000  0.76040000  1.0
  H  H118  1  0.06290000  0.45770000  0.68770000  1.0
  H  H119  1  0.04140000  0.39880000  0.72700000  1.0
  H  H120  1  0.86600000  0.34580000  0.76040000  1.0
  H  H121  1  0.79170000  0.45770000  0.68770000  1.0
  H  H122  1  0.83280000  0.39880000  0.72700000  1.0
  H  H123  1  0.34580000  0.86600000  0.02780000  1.0
  H  H124  1  0.45770000  0.79170000  0.06290000  1.0
  H  H125  1  0.39880000  0.83280000  0.04140000  1.0
  H  H126  1  0.02780000  0.76040000  0.34580000  1.0
  H  H127  1  0.06290000  0.68770000  0.45770000  1.0
  H  H128  1  0.04140000  0.72700000  0.39880000  1.0
  H  H129  1  0.76040000  0.02780000  0.86600000  1.0
  H  H130  1  0.68770000  0.06290000  0.79170000  1.0
  H  H131  1  0.72700000  0.04140000  0.83280000  1.0
  H  H132  1  0.02780000  0.86600000  0.76040000  1.0
  H  H133  1  0.06290000  0.79170000  0.68770000  1.0
  H  H134  1  0.04140000  0.83280000  0.72700000  1.0
  H  H135  1  0.76040000  0.34580000  0.02780000  1.0
  H  H136  1  0.68770000  0.45770000  0.06290000  1.0
  H  H137  1  0.72700000  0.39880000  0.04140000  1.0
  H  H138  1  0.86600000  0.02780000  0.34580000  1.0
  H  H139  1  0.79170000  0.06290000  0.45770000  1.0
  H  H140  1  0.83280000  0.04140000  0.39880000  1.0
  H  H141  1  0.34580000  0.76040000  0.86600000  1.0
  H  H142  1  0.45770000  0.68770000  0.79170000  1.0
  H  H143  1  0.39880000  0.72700000  0.83280000  1.0
  H  H144  1  0.34580000  0.02780000  0.76040000  1.0
  H  H145  1  0.45770000  0.06290000  0.68770000  1.0
  H  H146  1  0.39880000  0.04140000  0.72700000  1.0
  H  H147  1  0.86600000  0.76040000  0.02780000  1.0
  H  H148  1  0.79170000  0.68770000  0.06290000  1.0
  H  H149  1  0.83280000  0.72700000  0.04140000  1.0
  H  H150  1  0.76040000  0.86600000  0.34580000  1.0
  H  H151  1  0.68770000  0.79170000  0.45770000  1.0
  H  H152  1  0.72700000  0.83280000  0.39880000  1.0
  H  H153  1  0.02780000  0.34580000  0.86600000  1.0
  H  H154  1  0.06290000  0.45770000  0.79170000  1.0
  H  H155  1  0.04140000  0.39880000  0.83280000  1.0
  H  H156  1  0.13400000  0.65420000  0.97220000  1.0
  H  H157  1  0.20830000  0.54230000  0.93710000  1.0
  H  H158  1  0.16720000  0.60120000  0.95860000  1.0
  H  H159  1  0.65420000  0.13400000  0.23960000  1.0
  H  H160  1  0.54230000  0.20830000  0.31230000  1.0
  H  H161  1  0.60120000  0.16720000  0.27300000  1.0
  H  H162  1  0.97220000  0.23960000  0.13400000  1.0
  H  H163  1  0.93710000  0.31230000  0.20830000  1.0
  H  H164  1  0.95860000  0.27300000  0.16720000  1.0
  H  H165  1  0.23960000  0.97220000  0.65420000  1.0
  H  H166  1  0.31230000  0.93710000  0.54230000  1.0
  H  H167  1  0.27300000  0.95860000  0.60120000  1.0
  H  H168  1  0.97220000  0.13400000  0.65420000  1.0
  H  H169  1  0.93710000  0.20830000  0.54230000  1.0
  H  H170  1  0.95860000  0.16720000  0.60120000  1.0
  H  H171  1  0.23960000  0.65420000  0.13400000  1.0
  H  H172  1  0.31230000  0.54230000  0.20830000  1.0
  H  H173  1  0.27300000  0.60120000  0.16720000  1.0
  H  H174  1  0.13400000  0.97220000  0.23960000  1.0
  H  H175  1  0.20830000  0.93710000  0.31230000  1.0
  H  H176  1  0.16720000  0.95860000  0.27300000  1.0
  H  H177  1  0.65420000  0.23960000  0.97220000  1.0
  H  H178  1  0.54230000  0.31230000  0.93710000  1.0
  H  H179  1  0.60120000  0.27300000  0.95860000  1.0
  H  H180  1  0.65420000  0.97220000  0.13400000  1.0
  H  H181  1  0.54230000  0.93710000  0.20830000  1.0
  H  H182  1  0.60120000  0.95860000  0.16720000  1.0
  H  H183  1  0.13400000  0.23960000  0.65420000  1.0
  H  H184  1  0.20830000  0.31230000  0.54230000  1.0
  H  H185  1  0.16720000  0.27300000  0.60120000  1.0
  H  H186  1  0.23960000  0.13400000  0.97220000  1.0
  H  H187  1  0.31230000  0.20830000  0.93710000  1.0
  H  H188  1  0.27300000  0.16720000  0.95860000  1.0
  H  H189  1  0.97220000  0.65420000  0.23960000  1.0
  H  H190  1  0.93710000  0.54230000  0.31230000  1.0
  H  H191  1  0.95860000  0.60120000  0.27300000  1.0
  H  H192  1  0.13130000  0.75310000  0.13130000  1.0
  H  H193  1  0.75310000  0.13130000  0.98430000  1.0
  H  H194  1  0.98430000  0.13130000  0.75310000  1.0
  H  H195  1  0.13130000  0.98430000  0.13130000  1.0
  H  H196  1  0.98430000  0.13130000  0.13130000  1.0
  H  H197  1  0.13130000  0.75310000  0.98430000  1.0
  H  H198  1  0.13130000  0.98430000  0.75310000  1.0
  H  H199  1  0.75310000  0.13130000  0.13130000  1.0
  H  H200  1  0.75310000  0.98430000  0.13130000  1.0
  H  H201  1  0.13130000  0.13130000  0.98430000  1.0
  H  H202  1  0.13130000  0.13130000  0.75310000  1.0
  H  H203  1  0.98430000  0.75310000  0.13130000  1.0
  H  H204  1  0.86870000  0.24690000  0.01570000  1.0
  H  H205  1  0.24690000  0.86870000  0.86870000  1.0
  H  H206  1  0.01570000  0.86870000  0.86870000  1.0
  H  H207  1  0.86870000  0.01570000  0.24690000  1.0
  H  H208  1  0.01570000  0.86870000  0.24690000  1.0
  H  H209  1  0.86870000  0.24690000  0.86870000  1.0
  H  H210  1  0.86870000  0.01570000  0.86870000  1.0
  H  H211  1  0.24690000  0.86870000  0.01570000  1.0
  H  H212  1  0.24690000  0.01570000  0.86870000  1.0
  H  H213  1  0.86870000  0.86870000  0.24690000  1.0
  H  H214  1  0.86870000  0.86870000  0.01570000  1.0
  H  H215  1  0.01570000  0.24690000  0.86870000  1.0
  C  C216  1  0.12598000  0.70698000  0.18842000  1.0
  C  C217  1  0.14777000  0.66771000  0.21063000  1.0
  C  C218  1  0.08390000  0.72630000  0.20730000  1.0
  C  C219  1  0.22160000  0.55420000  0.28260000  1.0
  C  C220  1  0.19698000  0.58932000  0.25942000  1.0
  C  C221  1  0.70698000  0.12598000  0.97862000  1.0
  C  C222  1  0.66771000  0.14777000  0.97389000  1.0
  C  C223  1  0.72630000  0.08390000  0.98250000  1.0
  C  C224  1  0.55420000  0.22160000  0.94160000  1.0
  C  C225  1  0.58932000  0.19698000  0.95428000  1.0
  C  C226  1  0.97862000  0.18842000  0.70698000  1.0
  C  C227  1  0.97389000  0.21063000  0.66771000  1.0
  C  C228  1  0.98250000  0.20730000  0.72630000  1.0
  C  C229  1  0.94160000  0.28260000  0.55420000  1.0
  C  C230  1  0.95428000  0.25942000  0.58932000  1.0
  C  C231  1  0.18842000  0.97862000  0.12598000  1.0
  C  C232  1  0.21063000  0.97389000  0.14777000  1.0
  C  C233  1  0.20730000  0.98250000  0.08390000  1.0
  C  C234  1  0.28260000  0.94160000  0.22160000  1.0
  C  C235  1  0.25942000  0.95428000  0.19698000  1.0
  C  C236  1  0.97862000  0.12598000  0.18842000  1.0
  C  C237  1  0.97389000  0.14777000  0.21063000  1.0
  C  C238  1  0.98250000  0.08390000  0.20730000  1.0
  C  C239  1  0.94160000  0.22160000  0.28260000  1.0
  C  C240  1  0.95428000  0.19698000  0.25942000  1.0
  C  C241  1  0.18842000  0.70698000  0.97862000  1.0
  C  C242  1  0.21063000  0.66771000  0.97389000  1.0
  C  C243  1  0.20730000  0.72630000  0.98250000  1.0
  C  C244  1  0.28260000  0.55420000  0.94160000  1.0
  C  C245  1  0.25942000  0.58932000  0.95428000  1.0
  C  C246  1  0.12598000  0.97862000  0.70698000  1.0
  C  C247  1  0.14777000  0.97389000  0.66771000  1.0
  C  C248  1  0.08390000  0.98250000  0.72630000  1.0
  C  C249  1  0.22160000  0.94160000  0.55420000  1.0
  C  C250  1  0.19698000  0.95428000  0.58932000  1.0
  C  C251  1  0.70698000  0.18842000  0.12598000  1.0
  C  C252  1  0.66771000  0.21063000  0.14777000  1.0
  C  C253  1  0.72630000  0.20730000  0.08390000  1.0
  C  C254  1  0.55420000  0.28260000  0.22160000  1.0
  C  C255  1  0.58932000  0.25942000  0.19698000  1.0
  C  C256  1  0.70698000  0.97862000  0.18842000  1.0
  C  C257  1  0.66771000  0.97389000  0.21063000  1.0
  C  C258  1  0.72630000  0.98250000  0.20730000  1.0
  C  C259  1  0.55420000  0.94160000  0.28260000  1.0
  C  C260  1  0.58932000  0.95428000  0.25942000  1.0
  C  C261  1  0.12598000  0.18842000  0.97862000  1.0
  C  C262  1  0.14777000  0.21063000  0.97389000  1.0
  C  C263  1  0.08390000  0.20730000  0.98250000  1.0
  C  C264  1  0.22160000  0.28260000  0.94160000  1.0
  C  C265  1  0.19698000  0.25942000  0.95428000  1.0
  C  C266  1  0.18842000  0.12598000  0.70698000  1.0
  C  C267  1  0.21063000  0.14777000  0.66771000  1.0
  C  C268  1  0.20730000  0.08390000  0.72630000  1.0
  C  C269  1  0.28260000  0.22160000  0.55420000  1.0
  C  C270  1  0.25942000  0.19698000  0.58932000  1.0
  C  C271  1  0.97862000  0.70698000  0.12598000  1.0
  C  C272  1  0.97389000  0.66771000  0.14777000  1.0
  C  C273  1  0.98250000  0.72630000  0.08390000  1.0
  C  C274  1  0.94160000  0.55420000  0.22160000  1.0
  C  C275  1  0.95428000  0.58932000  0.19698000  1.0
  C  C276  1  0.87402000  0.29302000  0.02138000  1.0
  C  C277  1  0.85223000  0.33229000  0.02611000  1.0
  C  C278  1  0.91610000  0.27370000  0.01750000  1.0
  C  C279  1  0.77840000  0.44580000  0.05840000  1.0
  C  C280  1  0.80302000  0.41068000  0.04572000  1.0
  C  C281  1  0.29302000  0.87402000  0.81158000  1.0
  C  C282  1  0.33229000  0.85223000  0.78937000  1.0
  C  C283  1  0.27370000  0.91610000  0.79270000  1.0
  C  C284  1  0.44580000  0.77840000  0.71740000  1.0
  C  C285  1  0.41068000  0.80302000  0.74058000  1.0
  C  C286  1  0.02138000  0.81158000  0.87402000  1.0
  C  C287  1  0.02611000  0.78937000  0.85223000  1.0
  C  C288  1  0.01750000  0.79270000  0.91610000  1.0
  C  C289  1  0.05840000  0.71740000  0.77840000  1.0
  C  C290  1  0.04572000  0.74058000  0.80302000  1.0
  C  C291  1  0.81158000  0.02138000  0.29302000  1.0
  C  C292  1  0.78937000  0.02611000  0.33229000  1.0
  C  C293  1  0.79270000  0.01750000  0.27370000  1.0
  C  C294  1  0.71740000  0.05840000  0.44580000  1.0
  C  C295  1  0.74058000  0.04572000  0.41068000  1.0
  C  C296  1  0.02138000  0.87402000  0.29302000  1.0
  C  C297  1  0.02611000  0.85223000  0.33229000  1.0
  C  C298  1  0.01750000  0.91610000  0.27370000  1.0
  C  C299  1  0.05840000  0.77840000  0.44580000  1.0
  C  C300  1  0.04572000  0.80302000  0.41068000  1.0
  C  C301  1  0.81158000  0.29302000  0.87402000  1.0
  C  C302  1  0.78937000  0.33229000  0.85223000  1.0
  C  C303  1  0.79270000  0.27370000  0.91610000  1.0
  C  C304  1  0.71740000  0.44580000  0.77840000  1.0
  C  C305  1  0.74058000  0.41068000  0.80302000  1.0
  C  C306  1  0.87402000  0.02138000  0.81158000  1.0
  C  C307  1  0.85223000  0.02611000  0.78937000  1.0
  C  C308  1  0.91610000  0.01750000  0.79270000  1.0
  C  C309  1  0.77840000  0.05840000  0.71740000  1.0
  C  C310  1  0.80302000  0.04572000  0.74058000  1.0
  C  C311  1  0.29302000  0.81158000  0.02138000  1.0
  C  C312  1  0.33229000  0.78937000  0.02611000  1.0
  C  C313  1  0.27370000  0.79270000  0.01750000  1.0
  C  C314  1  0.44580000  0.71740000  0.05840000  1.0
  C  C315  1  0.41068000  0.74058000  0.04572000  1.0
  C  C316  1  0.29302000  0.02138000  0.87402000  1.0
  C  C317  1  0.33229000  0.02611000  0.85223000  1.0
  C  C318  1  0.27370000  0.01750000  0.91610000  1.0
  C  C319  1  0.44580000  0.05840000  0.77840000  1.0
  C  C320  1  0.41068000  0.04572000  0.80302000  1.0
  C  C321  1  0.87402000  0.81158000  0.29302000  1.0
  C  C322  1  0.85223000  0.78937000  0.33229000  1.0
  C  C323  1  0.91610000  0.79270000  0.27370000  1.0
  C  C324  1  0.77840000  0.71740000  0.44580000  1.0
  C  C325  1  0.80302000  0.74058000  0.41068000  1.0
  C  C326  1  0.81158000  0.87402000  0.02138000  1.0
  C  C327  1  0.78937000  0.85223000  0.02611000  1.0
  C  C328  1  0.79270000  0.91610000  0.01750000  1.0
  C  C329  1  0.71740000  0.77840000  0.05840000  1.0
  C  C330  1  0.74058000  0.80302000  0.04572000  1.0
  C  C331  1  0.02138000  0.29302000  0.81158000  1.0
  C  C332  1  0.02611000  0.33229000  0.78937000  1.0
  C  C333  1  0.01750000  0.27370000  0.79270000  1.0
  C  C334  1  0.05840000  0.44580000  0.71740000  1.0
  C  C335  1  0.04572000  0.41068000  0.74058000  1.0
  C  C336  1  0.87402000  0.29302000  0.81158000  1.0
  C  C337  1  0.85223000  0.33229000  0.78937000  1.0
  C  C338  1  0.91610000  0.27370000  0.79270000  1.0
  C  C339  1  0.77840000  0.44580000  0.71740000  1.0
  C  C340  1  0.80302000  0.41068000  0.74058000  1.0
  C  C341  1  0.29302000  0.87402000  0.02138000  1.0
  C  C342  1  0.33229000  0.85223000  0.02611000  1.0
  C  C343  1  0.27370000  0.91610000  0.01750000  1.0
  C  C344  1  0.44580000  0.77840000  0.05840000  1.0
  C  C345  1  0.41068000  0.80302000  0.04572000  1.0
  C  C346  1  0.02138000  0.81158000  0.29302000  1.0
  C  C347  1  0.02611000  0.78937000  0.33229000  1.0
  C  C348  1  0.01750000  0.79270000  0.27370000  1.0
  C  C349  1  0.05840000  0.71740000  0.44580000  1.0
  C  C350  1  0.04572000  0.74058000  0.41068000  1.0
  C  C351  1  0.81158000  0.02138000  0.87402000  1.0
  C  C352  1  0.78937000  0.02611000  0.85223000  1.0
  C  C353  1  0.79270000  0.01750000  0.91610000  1.0
  C  C354  1  0.71740000  0.05840000  0.77840000  1.0
  C  C355  1  0.74058000  0.04572000  0.80302000  1.0
  C  C356  1  0.02138000  0.87402000  0.81158000  1.0
  C  C357  1  0.02611000  0.85223000  0.78937000  1.0
  C  C358  1  0.01750000  0.91610000  0.79270000  1.0
  C  C359  1  0.05840000  0.77840000  0.71740000  1.0
  C  C360  1  0.04572000  0.80302000  0.74058000  1.0
  C  C361  1  0.81158000  0.29302000  0.02138000  1.0
  C  C362  1  0.78937000  0.33229000  0.02611000  1.0
  C  C363  1  0.79270000  0.27370000  0.01750000  1.0
  C  C364  1  0.71740000  0.44580000  0.05840000  1.0
  C  C365  1  0.74058000  0.41068000  0.04572000  1.0
  C  C366  1  0.87402000  0.02138000  0.29302000  1.0
  C  C367  1  0.85223000  0.02611000  0.33229000  1.0
  C  C368  1  0.91610000  0.01750000  0.27370000  1.0
  C  C369  1  0.77840000  0.05840000  0.44580000  1.0
  C  C370  1  0.80302000  0.04572000  0.41068000  1.0
  C  C371  1  0.29302000  0.81158000  0.87402000  1.0
  C  C372  1  0.33229000  0.78937000  0.85223000  1.0
  C  C373  1  0.27370000  0.79270000  0.91610000  1.0
  C  C374  1  0.44580000  0.71740000  0.77840000  1.0
  C  C375  1  0.41068000  0.74058000  0.80302000  1.0
  C  C376  1  0.29302000  0.02138000  0.81158000  1.0
  C  C377  1  0.33229000  0.02611000  0.78937000  1.0
  C  C378  1  0.27370000  0.01750000  0.79270000  1.0
  C  C379  1  0.44580000  0.05840000  0.71740000  1.0
  C  C380  1  0.41068000  0.04572000  0.74058000  1.0
  C  C381  1  0.87402000  0.81158000  0.02138000  1.0
  C  C382  1  0.85223000  0.78937000  0.02611000  1.0
  C  C383  1  0.91610000  0.79270000  0.01750000  1.0
  C  C384  1  0.77840000  0.71740000  0.05840000  1.0
  C  C385  1  0.80302000  0.74058000  0.04572000  1.0
  C  C386  1  0.81158000  0.87402000  0.29302000  1.0
  C  C387  1  0.78937000  0.85223000  0.33229000  1.0
  C  C388  1  0.79270000  0.91610000  0.27370000  1.0
  C  C389  1  0.71740000  0.77840000  0.44580000  1.0
  C  C390  1  0.74058000  0.80302000  0.41068000  1.0
  C  C391  1  0.02138000  0.29302000  0.87402000  1.0
  C  C392  1  0.02611000  0.33229000  0.85223000  1.0
  C  C393  1  0.01750000  0.27370000  0.91610000  1.0
  C  C394  1  0.05840000  0.44580000  0.77840000  1.0
  C  C395  1  0.04572000  0.41068000  0.80302000  1.0
  C  C396  1  0.12598000  0.70698000  0.97862000  1.0
  C  C397  1  0.14777000  0.66771000  0.97389000  1.0
  C  C398  1  0.08390000  0.72630000  0.98250000  1.0
  C  C399  1  0.22160000  0.55420000  0.94160000  1.0
  C  C400  1  0.19698000  0.58932000  0.95428000  1.0
  C  C401  1  0.70698000  0.12598000  0.18842000  1.0
  C  C402  1  0.66771000  0.14777000  0.21063000  1.0
  C  C403  1  0.72630000  0.08390000  0.20730000  1.0
  C  C404  1  0.55420000  0.22160000  0.28260000  1.0
  C  C405  1  0.58932000  0.19698000  0.25942000  1.0
  C  C406  1  0.97862000  0.18842000  0.12598000  1.0
  C  C407  1  0.97389000  0.21063000  0.14777000  1.0
  C  C408  1  0.98250000  0.20730000  0.08390000  1.0
  C  C409  1  0.94160000  0.28260000  0.22160000  1.0
  C  C410  1  0.95428000  0.25942000  0.19698000  1.0
  C  C411  1  0.18842000  0.97862000  0.70698000  1.0
  C  C412  1  0.21063000  0.97389000  0.66771000  1.0
  C  C413  1  0.20730000  0.98250000  0.72630000  1.0
  C  C414  1  0.28260000  0.94160000  0.55420000  1.0
  C  C415  1  0.25942000  0.95428000  0.58932000  1.0
  C  C416  1  0.97862000  0.12598000  0.70698000  1.0
  C  C417  1  0.97389000  0.14777000  0.66771000  1.0
  C  C418  1  0.98250000  0.08390000  0.72630000  1.0
  C  C419  1  0.94160000  0.22160000  0.55420000  1.0
  C  C420  1  0.95428000  0.19698000  0.58932000  1.0
  C  C421  1  0.18842000  0.70698000  0.12598000  1.0
  C  C422  1  0.21063000  0.66771000  0.14777000  1.0
  C  C423  1  0.20730000  0.72630000  0.08390000  1.0
  C  C424  1  0.28260000  0.55420000  0.22160000  1.0
  C  C425  1  0.25942000  0.58932000  0.19698000  1.0
  C  C426  1  0.12598000  0.97862000  0.18842000  1.0
  C  C427  1  0.14777000  0.97389000  0.21063000  1.0
  C  C428  1  0.08390000  0.98250000  0.20730000  1.0
  C  C429  1  0.22160000  0.94160000  0.28260000  1.0
  C  C430  1  0.19698000  0.95428000  0.25942000  1.0
  C  C431  1  0.70698000  0.18842000  0.97862000  1.0
  C  C432  1  0.66771000  0.21063000  0.97389000  1.0
  C  C433  1  0.72630000  0.20730000  0.98250000  1.0
  C  C434  1  0.55420000  0.28260000  0.94160000  1.0
  C  C435  1  0.58932000  0.25942000  0.95428000  1.0
  C  C436  1  0.70698000  0.97862000  0.12598000  1.0
  C  C437  1  0.66771000  0.97389000  0.14777000  1.0
  C  C438  1  0.72630000  0.98250000  0.08390000  1.0
  C  C439  1  0.55420000  0.94160000  0.22160000  1.0
  C  C440  1  0.58932000  0.95428000  0.19698000  1.0
  C  C441  1  0.12598000  0.18842000  0.70698000  1.0
  C  C442  1  0.14777000  0.21063000  0.66771000  1.0
  C  C443  1  0.08390000  0.20730000  0.72630000  1.0
  C  C444  1  0.22160000  0.28260000  0.55420000  1.0
  C  C445  1  0.19698000  0.25942000  0.58932000  1.0
  C  C446  1  0.18842000  0.12598000  0.97862000  1.0
  C  C447  1  0.21063000  0.14777000  0.97389000  1.0
  C  C448  1  0.20730000  0.08390000  0.98250000  1.0
  C  C449  1  0.28260000  0.22160000  0.94160000  1.0
  C  C450  1  0.25942000  0.19698000  0.95428000  1.0
  C  C451  1  0.97862000  0.70698000  0.18842000  1.0
  C  C452  1  0.97389000  0.66771000  0.21063000  1.0
  C  C453  1  0.98250000  0.72630000  0.20730000  1.0
  C  C454  1  0.94160000  0.55420000  0.28260000  1.0
  C  C455  1  0.95428000  0.58932000  0.25942000  1.0
  C  C456  1  0.14660000  0.72600000  0.14660000  1.0
  C  C457  1  0.26460000  0.53580000  0.26460000  1.0
  C  C458  1  0.21560000  0.60780000  0.21560000  1.0
  C  C459  1  0.19030000  0.64770000  0.19030000  1.0
  C  C460  1  0.28320000  0.49440000  0.28320000  1.0
  C  C461  1  0.72600000  0.14660000  0.98080000  1.0
  C  C462  1  0.53580000  0.26460000  0.93500000  1.0
  C  C463  1  0.60780000  0.21560000  0.96100000  1.0
  C  C464  1  0.64770000  0.19030000  0.97170000  1.0
  C  C465  1  0.49440000  0.28320000  0.93920000  1.0
  C  C466  1  0.98080000  0.14660000  0.72600000  1.0
  C  C467  1  0.93500000  0.26460000  0.53580000  1.0
  C  C468  1  0.96100000  0.21560000  0.60780000  1.0
  C  C469  1  0.97170000  0.19030000  0.64770000  1.0
  C  C470  1  0.93920000  0.28320000  0.49440000  1.0
  C  C471  1  0.14660000  0.98080000  0.14660000  1.0
  C  C472  1  0.26460000  0.93500000  0.26460000  1.0
  C  C473  1  0.21560000  0.96100000  0.21560000  1.0
  C  C474  1  0.19030000  0.97170000  0.19030000  1.0
  C  C475  1  0.28320000  0.93920000  0.28320000  1.0
  C  C476  1  0.98080000  0.14660000  0.14660000  1.0
  C  C477  1  0.93500000  0.26460000  0.26460000  1.0
  C  C478  1  0.96100000  0.21560000  0.21560000  1.0
  C  C479  1  0.97170000  0.19030000  0.19030000  1.0
  C  C480  1  0.93920000  0.28320000  0.28320000  1.0
  C  C481  1  0.14660000  0.72600000  0.98080000  1.0
  C  C482  1  0.26460000  0.53580000  0.93500000  1.0
  C  C483  1  0.21560000  0.60780000  0.96100000  1.0
  C  C484  1  0.19030000  0.64770000  0.97170000  1.0
  C  C485  1  0.28320000  0.49440000  0.93920000  1.0
  C  C486  1  0.14660000  0.98080000  0.72600000  1.0
  C  C487  1  0.26460000  0.93500000  0.53580000  1.0
  C  C488  1  0.21560000  0.96100000  0.60780000  1.0
  C  C489  1  0.19030000  0.97170000  0.64770000  1.0
  C  C490  1  0.28320000  0.93920000  0.49440000  1.0
  C  C491  1  0.72600000  0.14660000  0.14660000  1.0
  C  C492  1  0.53580000  0.26460000  0.26460000  1.0
  C  C493  1  0.60780000  0.21560000  0.21560000  1.0
  C  C494  1  0.64770000  0.19030000  0.19030000  1.0
  C  C495  1  0.49440000  0.28320000  0.28320000  1.0
  C  C496  1  0.72600000  0.98080000  0.14660000  1.0
  C  C497  1  0.53580000  0.93500000  0.26460000  1.0
  C  C498  1  0.60780000  0.96100000  0.21560000  1.0
  C  C499  1  0.64770000  0.97170000  0.19030000  1.0
  C  C500  1  0.49440000  0.93920000  0.28320000  1.0
  C  C501  1  0.14660000  0.14660000  0.98080000  1.0
  C  C502  1  0.26460000  0.26460000  0.93500000  1.0
  C  C503  1  0.21560000  0.21560000  0.96100000  1.0
  C  C504  1  0.19030000  0.19030000  0.97170000  1.0
  C  C505  1  0.28320000  0.28320000  0.93920000  1.0
  C  C506  1  0.14660000  0.14660000  0.72600000  1.0
  C  C507  1  0.26460000  0.26460000  0.53580000  1.0
  C  C508  1  0.21560000  0.21560000  0.60780000  1.0
  C  C509  1  0.19030000  0.19030000  0.64770000  1.0
  C  C510  1  0.28320000  0.28320000  0.49440000  1.0
  C  C511  1  0.98080000  0.72600000  0.14660000  1.0
  C  C512  1  0.93500000  0.53580000  0.26460000  1.0
  C  C513  1  0.96100000  0.60780000  0.21560000  1.0
  C  C514  1  0.97170000  0.64770000  0.19030000  1.0
  C  C515  1  0.93920000  0.49440000  0.28320000  1.0
  C  C516  1  0.85340000  0.27400000  0.01920000  1.0
  C  C517  1  0.73540000  0.46420000  0.06500000  1.0
  C  C518  1  0.78440000  0.39220000  0.03900000  1.0
  C  C519  1  0.80970000  0.35230000  0.02830000  1.0
  C  C520  1  0.71680000  0.50560000  0.06080000  1.0
  C  C521  1  0.27400000  0.85340000  0.85340000  1.0
  C  C522  1  0.46420000  0.73540000  0.73540000  1.0
  C  C523  1  0.39220000  0.78440000  0.78440000  1.0
  C  C524  1  0.35230000  0.80970000  0.80970000  1.0
  C  C525  1  0.50560000  0.71680000  0.71680000  1.0
  C  C526  1  0.01920000  0.85340000  0.85340000  1.0
  C  C527  1  0.06500000  0.73540000  0.73540000  1.0
  C  C528  1  0.03900000  0.78440000  0.78440000  1.0
  C  C529  1  0.02830000  0.80970000  0.80970000  1.0
  C  C530  1  0.06080000  0.71680000  0.71680000  1.0
  C  C531  1  0.85340000  0.01920000  0.27400000  1.0
  C  C532  1  0.73540000  0.06500000  0.46420000  1.0
  C  C533  1  0.78440000  0.03900000  0.39220000  1.0
  C  C534  1  0.80970000  0.02830000  0.35230000  1.0
  C  C535  1  0.71680000  0.06080000  0.50560000  1.0
  C  C536  1  0.01920000  0.85340000  0.27400000  1.0
  C  C537  1  0.06500000  0.73540000  0.46420000  1.0
  C  C538  1  0.03900000  0.78440000  0.39220000  1.0
  C  C539  1  0.02830000  0.80970000  0.35230000  1.0
  C  C540  1  0.06080000  0.71680000  0.50560000  1.0
  C  C541  1  0.85340000  0.27400000  0.85340000  1.0
  C  C542  1  0.73540000  0.46420000  0.73540000  1.0
  C  C543  1  0.78440000  0.39220000  0.78440000  1.0
  C  C544  1  0.80970000  0.35230000  0.80970000  1.0
  C  C545  1  0.71680000  0.50560000  0.71680000  1.0
  C  C546  1  0.85340000  0.01920000  0.85340000  1.0
  C  C547  1  0.73540000  0.06500000  0.73540000  1.0
  C  C548  1  0.78440000  0.03900000  0.78440000  1.0
  C  C549  1  0.80970000  0.02830000  0.80970000  1.0
  C  C550  1  0.71680000  0.06080000  0.71680000  1.0
  C  C551  1  0.27400000  0.85340000  0.01920000  1.0
  C  C552  1  0.46420000  0.73540000  0.06500000  1.0
  C  C553  1  0.39220000  0.78440000  0.03900000  1.0
  C  C554  1  0.35230000  0.80970000  0.02830000  1.0
  C  C555  1  0.50560000  0.71680000  0.06080000  1.0
  C  C556  1  0.27400000  0.01920000  0.85340000  1.0
  C  C557  1  0.46420000  0.06500000  0.73540000  1.0
  C  C558  1  0.39220000  0.03900000  0.78440000  1.0
  C  C559  1  0.35230000  0.02830000  0.80970000  1.0
  C  C560  1  0.50560000  0.06080000  0.71680000  1.0
  C  C561  1  0.85340000  0.85340000  0.27400000  1.0
  C  C562  1  0.73540000  0.73540000  0.46420000  1.0
  C  C563  1  0.78440000  0.78440000  0.39220000  1.0
  C  C564  1  0.80970000  0.80970000  0.35230000  1.0
  C  C565  1  0.71680000  0.71680000  0.50560000  1.0
  C  C566  1  0.85340000  0.85340000  0.01920000  1.0
  C  C567  1  0.73540000  0.73540000  0.06500000  1.0
  C  C568  1  0.78440000  0.78440000  0.03900000  1.0
  C  C569  1  0.80970000  0.80970000  0.02830000  1.0
  C  C570  1  0.71680000  0.71680000  0.06080000  1.0
  C  C571  1  0.01920000  0.27400000  0.85340000  1.0
  C  C572  1  0.06500000  0.46420000  0.73540000  1.0
  C  C573  1  0.03900000  0.39220000  0.78440000  1.0
  C  C574  1  0.02830000  0.35230000  0.80970000  1.0
  C  C575  1  0.06080000  0.50560000  0.71680000  1.0
  N  N576  1  0.26930000  0.46990000  0.32530000  1.0
  N  N577  1  0.29846667  0.43630000  0.33333333  1.0
  N  N578  1  0.46990000  0.26930000  0.93550000  1.0
  N  N579  1  0.43626667  0.29850000  0.93190000  1.0
  N  N580  1  0.93550000  0.32530000  0.46990000  1.0
  N  N581  1  0.93186667  0.33333333  0.43630000  1.0
  N  N582  1  0.32530000  0.93550000  0.26930000  1.0
  N  N583  1  0.33330000  0.93190000  0.29850000  1.0
  N  N584  1  0.93550000  0.26930000  0.32530000  1.0
  N  N585  1  0.93186667  0.29850000  0.33333333  1.0
  N  N586  1  0.32530000  0.46990000  0.93550000  1.0
  N  N587  1  0.33330000  0.43630000  0.93190000  1.0
  N  N588  1  0.26930000  0.93550000  0.46990000  1.0
  N  N589  1  0.29846667  0.93190000  0.43630000  1.0
  N  N590  1  0.46990000  0.32530000  0.26930000  1.0
  N  N591  1  0.43626667  0.33333333  0.29850000  1.0
  N  N592  1  0.46990000  0.93550000  0.32530000  1.0
  N  N593  1  0.43626667  0.93190000  0.33333333  1.0
  N  N594  1  0.26930000  0.32530000  0.93550000  1.0
  N  N595  1  0.29846667  0.33333333  0.93190000  1.0
  N  N596  1  0.32530000  0.26930000  0.46990000  1.0
  N  N597  1  0.33330000  0.29850000  0.43630000  1.0
  N  N598  1  0.93550000  0.46990000  0.26930000  1.0
  N  N599  1  0.93186667  0.43630000  0.29850000  1.0
  N  N600  1  0.73070000  0.53010000  0.06450000  1.0
  N  N601  1  0.70153333  0.56370000  0.06810000  1.0
  N  N602  1  0.53010000  0.73070000  0.67470000  1.0
  N  N603  1  0.56373333  0.70150000  0.66666667  1.0
  N  N604  1  0.06450000  0.67470000  0.73070000  1.0
  N  N605  1  0.06813333  0.66666667  0.70150000  1.0
  N  N606  1  0.67470000  0.06450000  0.53010000  1.0
  N  N607  1  0.66670000  0.06810000  0.56370000  1.0
  N  N608  1  0.06450000  0.73070000  0.53010000  1.0
  N  N609  1  0.06813333  0.70150000  0.56370000  1.0
  N  N610  1  0.67470000  0.53010000  0.73070000  1.0
  N  N611  1  0.66670000  0.56370000  0.70150000  1.0
  N  N612  1  0.73070000  0.06450000  0.67470000  1.0
  N  N613  1  0.70153333  0.06810000  0.66666667  1.0
  N  N614  1  0.53010000  0.67470000  0.06450000  1.0
  N  N615  1  0.56373333  0.66666667  0.06810000  1.0
  N  N616  1  0.53010000  0.06450000  0.73070000  1.0
  N  N617  1  0.56373333  0.06810000  0.70150000  1.0
  N  N618  1  0.73070000  0.67470000  0.53010000  1.0
  N  N619  1  0.70153333  0.66666667  0.56370000  1.0
  N  N620  1  0.67470000  0.73070000  0.06450000  1.0
  N  N621  1  0.66670000  0.70150000  0.06810000  1.0
  N  N622  1  0.06450000  0.53010000  0.67470000  1.0
  N  N623  1  0.06813333  0.56370000  0.66666667  1.0
  N  N624  1  0.73070000  0.53010000  0.67470000  1.0
  N  N625  1  0.70153333  0.56370000  0.66666667  1.0
  N  N626  1  0.53010000  0.73070000  0.06450000  1.0
  N  N627  1  0.56373333  0.70150000  0.06810000  1.0
  N  N628  1  0.06450000  0.67470000  0.53010000  1.0
  N  N629  1  0.06813333  0.66666667  0.56370000  1.0
  N  N630  1  0.67470000  0.06450000  0.73070000  1.0
  N  N631  1  0.66670000  0.06810000  0.70150000  1.0
  N  N632  1  0.06450000  0.73070000  0.67470000  1.0
  N  N633  1  0.06813333  0.70150000  0.66666667  1.0
  N  N634  1  0.67470000  0.53010000  0.06450000  1.0
  N  N635  1  0.66670000  0.56370000  0.06810000  1.0
  N  N636  1  0.73070000  0.06450000  0.53010000  1.0
  N  N637  1  0.70153333  0.06810000  0.56370000  1.0
  N  N638  1  0.53010000  0.67470000  0.73070000  1.0
  N  N639  1  0.56373333  0.66666667  0.70150000  1.0
  N  N640  1  0.53010000  0.06450000  0.67470000  1.0
  N  N641  1  0.56373333  0.06810000  0.66666667  1.0
  N  N642  1  0.73070000  0.67470000  0.06450000  1.0
  N  N643  1  0.70153333  0.66666667  0.06810000  1.0
  N  N644  1  0.67470000  0.73070000  0.53010000  1.0
  N  N645  1  0.66670000  0.70150000  0.56370000  1.0
  N  N646  1  0.06450000  0.53010000  0.73070000  1.0
  N  N647  1  0.06813333  0.56370000  0.70150000  1.0
  N  N648  1  0.26930000  0.46990000  0.93550000  1.0
  N  N649  1  0.29846667  0.43630000  0.93190000  1.0
  N  N650  1  0.46990000  0.26930000  0.32530000  1.0
  N  N651  1  0.43626667  0.29850000  0.33333333  1.0
  N  N652  1  0.93550000  0.32530000  0.26930000  1.0
  N  N653  1  0.93186667  0.33333333  0.29850000  1.0
  N  N654  1  0.32530000  0.93550000  0.46990000  1.0
  N  N655  1  0.33330000  0.93190000  0.43630000  1.0
  N  N656  1  0.93550000  0.26930000  0.46990000  1.0
  N  N657  1  0.93186667  0.29850000  0.43630000  1.0
  N  N658  1  0.32530000  0.46990000  0.26930000  1.0
  N  N659  1  0.33330000  0.43630000  0.29850000  1.0
  N  N660  1  0.26930000  0.93550000  0.32530000  1.0
  N  N661  1  0.29846667  0.93190000  0.33333333  1.0
  N  N662  1  0.46990000  0.32530000  0.93550000  1.0
  N  N663  1  0.43626667  0.33333333  0.93190000  1.0
  N  N664  1  0.46990000  0.93550000  0.26930000  1.0
  N  N665  1  0.43626667  0.93190000  0.29850000  1.0
  N  N666  1  0.26930000  0.32530000  0.46990000  1.0
  N  N667  1  0.29846667  0.33333333  0.43630000  1.0
  N  N668  1  0.32530000  0.26930000  0.93550000  1.0
  N  N669  1  0.33330000  0.29850000  0.93190000  1.0
  N  N670  1  0.93550000  0.46990000  0.32530000  1.0
  N  N671  1  0.93186667  0.43630000  0.33333333  1.0
  O  O672  1  0.06101000  0.70519000  0.24331000  1.0
  O  O673  1  0.05896000  0.76646000  0.18544000  1.0
  O  O674  1  0.70519000  0.06101000  0.99049000  1.0
  O  O675  1  0.76646000  0.05896000  0.98914000  1.0
  O  O676  1  0.99049000  0.24331000  0.70519000  1.0
  O  O677  1  0.98914000  0.18544000  0.76646000  1.0
  O  O678  1  0.24331000  0.99049000  0.06101000  1.0
  O  O679  1  0.18544000  0.98914000  0.05896000  1.0
  O  O680  1  0.99049000  0.06101000  0.24331000  1.0
  O  O681  1  0.98914000  0.05896000  0.18544000  1.0
  O  O682  1  0.24331000  0.70519000  0.99049000  1.0
  O  O683  1  0.18544000  0.76646000  0.98914000  1.0
  O  O684  1  0.06101000  0.99049000  0.70519000  1.0
  O  O685  1  0.05896000  0.98914000  0.76646000  1.0
  O  O686  1  0.70519000  0.24331000  0.06101000  1.0
  O  O687  1  0.76646000  0.18544000  0.05896000  1.0
  O  O688  1  0.70519000  0.99049000  0.24331000  1.0
  O  O689  1  0.76646000  0.98914000  0.18544000  1.0
  O  O690  1  0.06101000  0.24331000  0.99049000  1.0
  O  O691  1  0.05896000  0.18544000  0.98914000  1.0
  O  O692  1  0.24331000  0.06101000  0.70519000  1.0
  O  O693  1  0.18544000  0.05896000  0.76646000  1.0
  O  O694  1  0.99049000  0.70519000  0.06101000  1.0
  O  O695  1  0.98914000  0.76646000  0.05896000  1.0
  O  O696  1  0.93899000  0.29481000  0.00951000  1.0
  O  O697  1  0.94104000  0.23354000  0.01086000  1.0
  O  O698  1  0.29481000  0.93899000  0.75669000  1.0
  O  O699  1  0.23354000  0.94104000  0.81456000  1.0
  O  O700  1  0.00951000  0.75669000  0.93899000  1.0
  O  O701  1  0.01086000  0.81456000  0.94104000  1.0
  O  O702  1  0.75669000  0.00951000  0.29481000  1.0
  O  O703  1  0.81456000  0.01086000  0.23354000  1.0
  O  O704  1  0.00951000  0.93899000  0.29481000  1.0
  O  O705  1  0.01086000  0.94104000  0.23354000  1.0
  O  O706  1  0.75669000  0.29481000  0.93899000  1.0
  O  O707  1  0.81456000  0.23354000  0.94104000  1.0
  O  O708  1  0.93899000  0.00951000  0.75669000  1.0
  O  O709  1  0.94104000  0.01086000  0.81456000  1.0
  O  O710  1  0.29481000  0.75669000  0.00951000  1.0
  O  O711  1  0.23354000  0.81456000  0.01086000  1.0
  O  O712  1  0.29481000  0.00951000  0.93899000  1.0
  O  O713  1  0.23354000  0.01086000  0.94104000  1.0
  O  O714  1  0.93899000  0.75669000  0.29481000  1.0
  O  O715  1  0.94104000  0.81456000  0.23354000  1.0
  O  O716  1  0.75669000  0.93899000  0.00951000  1.0
  O  O717  1  0.81456000  0.94104000  0.01086000  1.0
  O  O718  1  0.00951000  0.29481000  0.75669000  1.0
  O  O719  1  0.01086000  0.23354000  0.81456000  1.0
  O  O720  1  0.93899000  0.29481000  0.75669000  1.0
  O  O721  1  0.94104000  0.23354000  0.81456000  1.0
  O  O722  1  0.29481000  0.93899000  0.00951000  1.0
  O  O723  1  0.23354000  0.94104000  0.01086000  1.0
  O  O724  1  0.00951000  0.75669000  0.29481000  1.0
  O  O725  1  0.01086000  0.81456000  0.23354000  1.0
  O  O726  1  0.75669000  0.00951000  0.93899000  1.0
  O  O727  1  0.81456000  0.01086000  0.94104000  1.0
  O  O728  1  0.00951000  0.93899000  0.75669000  1.0
  O  O729  1  0.01086000  0.94104000  0.81456000  1.0
  O  O730  1  0.75669000  0.29481000  0.00951000  1.0
  O  O731  1  0.81456000  0.23354000  0.01086000  1.0
  O  O732  1  0.93899000  0.00951000  0.29481000  1.0
  O  O733  1  0.94104000  0.01086000  0.23354000  1.0
  O  O734  1  0.29481000  0.75669000  0.93899000  1.0
  O  O735  1  0.23354000  0.81456000  0.94104000  1.0
  O  O736  1  0.29481000  0.00951000  0.75669000  1.0
  O  O737  1  0.23354000  0.01086000  0.81456000  1.0
  O  O738  1  0.93899000  0.75669000  0.00951000  1.0
  O  O739  1  0.94104000  0.81456000  0.01086000  1.0
  O  O740  1  0.75669000  0.93899000  0.29481000  1.0
  O  O741  1  0.81456000  0.94104000  0.23354000  1.0
  O  O742  1  0.00951000  0.29481000  0.93899000  1.0
  O  O743  1  0.01086000  0.23354000  0.94104000  1.0
  O  O744  1  0.06101000  0.70519000  0.99049000  1.0
  O  O745  1  0.05896000  0.76646000  0.98914000  1.0
  O  O746  1  0.70519000  0.06101000  0.24331000  1.0
  O  O747  1  0.76646000  0.05896000  0.18544000  1.0
  O  O748  1  0.99049000  0.24331000  0.06101000  1.0
  O  O749  1  0.98914000  0.18544000  0.05896000  1.0
  O  O750  1  0.24331000  0.99049000  0.70519000  1.0
  O  O751  1  0.18544000  0.98914000  0.76646000  1.0
  O  O752  1  0.99049000  0.06101000  0.70519000  1.0
  O  O753  1  0.98914000  0.05896000  0.76646000  1.0
  O  O754  1  0.24331000  0.70519000  0.06101000  1.0
  O  O755  1  0.18544000  0.76646000  0.05896000  1.0
  O  O756  1  0.06101000  0.99049000  0.24331000  1.0
  O  O757  1  0.05896000  0.98914000  0.18544000  1.0
  O  O758  1  0.70519000  0.24331000  0.99049000  1.0
  O  O759  1  0.76646000  0.18544000  0.98914000  1.0
  O  O760  1  0.70519000  0.99049000  0.06101000  1.0
  O  O761  1  0.76646000  0.98914000  0.05896000  1.0
  O  O762  1  0.06101000  0.24331000  0.70519000  1.0
  O  O763  1  0.05896000  0.18544000  0.76646000  1.0
  O  O764  1  0.24331000  0.06101000  0.99049000  1.0
  O  O765  1  0.18544000  0.05896000  0.98914000  1.0
  O  O766  1  0.99049000  0.70519000  0.24331000  1.0
  O  O767  1  0.98914000  0.76646000  0.18544000  1.0
  O  O768  1  0.36920000  0.36920000  0.36920000  1.0
  O  O769  1  0.36920000  0.36920000  0.89240000  1.0
  O  O770  1  0.89240000  0.36920000  0.36920000  1.0
  O  O771  1  0.36920000  0.89240000  0.36920000  1.0
  O  O772  1  0.63080000  0.63080000  0.10760000  1.0
  O  O773  1  0.63080000  0.63080000  0.63080000  1.0
  O  O774  1  0.10760000  0.63080000  0.63080000  1.0
  O  O775  1  0.63080000  0.10760000  0.63080000  1.0
